* PEX produced on Wed Apr  8 05:56:37 PM CEST 2026 using /foss/tools/sak/iic-pex.sh with m=3 and s=1
* NGSPICE file created from LDO_V22.ext - technology: sky130A

.subckt LDO_V22 V_ref VDD GND V_ldo
X0 GND.t216 GND.t215 GND.t216 GND.t0 sky130_fd_pr__nfet_01v8_lvt ad=0.0725 pd=0.79 as=0 ps=0 w=0.5 l=1
X1 GND.t214 GND.t213 GND.t214 GND.t15 sky130_fd_pr__nfet_01v8_lvt ad=0.0725 pd=0.79 as=0 ps=0 w=0.5 l=1
X2 a_24898_n32597.t0 V_ldo.t17 GND.t217 sky130_fd_pr__res_xhigh_po_0p35 l=6.13
X3 CG2_0.Vbias.t3 CG2_0.Vbias.t2 GND.t30 GND.t29 sky130_fd_pr__nfet_01v8_lvt ad=0.0725 pd=0.79 as=0.0725 ps=0.79 w=0.5 l=1
X4 GND.t11 CG2_0.Vbias.t4 a_26874_n30469.t6 GND.t0 sky130_fd_pr__nfet_01v8_lvt ad=0.0725 pd=0.79 as=0.0725 ps=0.79 w=0.5 l=1
X5 VDD.t11 a_26649_n35120.t5 a_26271_n35831.t0 VDD.t10 sky130_fd_pr__pfet_01v8_lvt ad=0.08555 pd=0.88 as=0.08555 ps=0.88 w=0.59 l=1
X6 VDD.t239 VDD.t238 VDD.t239 VDD.t39 sky130_fd_pr__pfet_01v8_lvt ad=0.725 pd=5.29 as=0 ps=0 w=5 l=1
X7 VDD.t40 a_25356_n32542.t13 a_27390_n30469.t5 VDD.t39 sky130_fd_pr__pfet_01v8_lvt ad=0.725 pd=5.29 as=0.725 ps=5.29 w=5 l=1
X8 GND.t212 GND.t211 GND.t212 GND.t131 sky130_fd_pr__nfet_01v8_lvt ad=0.0725 pd=0.79 as=0 ps=0 w=0.5 l=1
X9 VDD.t237 VDD.t236 VDD.t237 VDD.t145 sky130_fd_pr__pfet_01v8_lvt ad=0.725 pd=5.29 as=0 ps=0 w=5 l=1
X10 VDD.t246 a_25356_n32542.t14 a_26874_n30469.t4 VDD.t145 sky130_fd_pr__pfet_01v8_lvt ad=0.725 pd=5.29 as=0.725 ps=5.29 w=5 l=1
X11 GND.t210 GND.t209 GND.t210 GND.t12 sky130_fd_pr__nfet_01v8_lvt ad=0.0725 pd=0.79 as=0 ps=0 w=0.5 l=1
X12 a_26271_n35831.t4 a_26649_n35120.t4 GND.t233 sky130_fd_pr__res_xhigh_po_0p35 l=1.75
X13 VDD.t235 VDD.t234 VDD.t235 VDD.t159 sky130_fd_pr__pfet_01v8_lvt ad=0.725 pd=5.29 as=0 ps=0 w=5 l=1
X14 GND.t208 GND.t207 GND.t208 GND.t0 sky130_fd_pr__nfet_01v8_lvt ad=0.0725 pd=0.79 as=0 ps=0 w=0.5 l=1
X15 VDD.t233 VDD.t231 VDD.t232 VDD.t152 sky130_fd_pr__pfet_01v8_lvt ad=1.45 pd=10.58 as=0 ps=0 w=5 l=1
X16 GND.t206 GND.t205 GND.t206 GND.t81 sky130_fd_pr__nfet_01v8_lvt ad=0.0725 pd=0.79 as=0 ps=0 w=0.5 l=1
X17 VDD.t230 VDD.t229 VDD.t230 VDD.t137 sky130_fd_pr__pfet_01v8_lvt ad=0.08555 pd=0.88 as=0 ps=0 w=0.59 l=1
X18 a_24646_n35831.t26 a_24646_n35831.t25 a_24646_n35831.t26 VDD.t45 sky130_fd_pr__pfet_01v8_lvt ad=0.0725 pd=0.79 as=0 ps=0 w=0.5 l=1
X19 VDD.t228 VDD.t227 VDD.t228 VDD.t24 sky130_fd_pr__pfet_01v8_lvt ad=0.725 pd=5.29 as=0 ps=0 w=5 l=1
X20 GND.t204 GND.t203 GND.t204 GND.t131 sky130_fd_pr__nfet_01v8_lvt ad=0.0725 pd=0.79 as=0 ps=0 w=0.5 l=1
X21 GND.t202 GND.t201 GND.t202 GND.t31 sky130_fd_pr__nfet_01v8_lvt ad=0.0725 pd=0.79 as=0 ps=0 w=0.5 l=1
X22 VDD.t226 VDD.t225 VDD.t226 VDD.t28 sky130_fd_pr__pfet_01v8_lvt ad=0.725 pd=5.29 as=0 ps=0 w=5 l=1
X23 a_30192_n32542.t5 a_26874_n30469.t9 VDD.t29 VDD.t28 sky130_fd_pr__pfet_01v8_lvt ad=0.725 pd=5.29 as=0.725 ps=5.29 w=5 l=1
X24 GND.t223 GND.t224 GND.t37 sky130_fd_pr__res_xhigh_po_0p35 l=5.25
X25 VDD.t224 VDD.t223 VDD.t224 VDD.t53 sky130_fd_pr__pfet_01v8_lvt ad=0.725 pd=5.29 as=0 ps=0 w=5 l=1
X26 GND.t200 GND.t198 GND.t199 GND.t59 sky130_fd_pr__nfet_01v8_lvt ad=0.145 pd=1.58 as=0 ps=0 w=0.5 l=1
X27 VDD.t62 a_30192_n32542.t11 V_ldo.t13 VDD.t61 sky130_fd_pr__pfet_01v8_lvt ad=6.67 pd=46.29 as=6.67 ps=46.29 w=46 l=1
X28 VDD.t36 a_30192_n32542.t12 V_ldo.t6 VDD.t35 sky130_fd_pr__pfet_01v8_lvt ad=6.67 pd=46.29 as=6.67 ps=46.29 w=46 l=1
X29 GND.t197 GND.t196 GND.t197 GND.t158 sky130_fd_pr__nfet_01v8_lvt ad=0.0725 pd=0.79 as=0 ps=0 w=0.5 l=1
X30 a_26874_n30469.t5 CG2_0.Vbias.t5 GND.t234 GND.t0 sky130_fd_pr__nfet_01v8_lvt ad=0.0725 pd=0.79 as=0.0725 ps=0.79 w=0.5 l=1
X31 VDD.t222 VDD.t221 VDD.t222 VDD.t131 sky130_fd_pr__pfet_01v8_lvt ad=0.725 pd=5.29 as=0 ps=0 w=5 l=1
X32 a_26874_n30469.t2 a_25356_n32542.t15 VDD.t240 VDD.t131 sky130_fd_pr__pfet_01v8_lvt ad=0.725 pd=5.29 as=0.725 ps=5.29 w=5 l=1
X33 a_24582_n32542.t9 a_24582_n32542.t7 a_24582_n32542.t8 GND.t21 sky130_fd_pr__nfet_01v8_lvt ad=0.145 pd=1.58 as=0 ps=0 w=0.5 l=1
X34 a_24646_n35831.t27 a_25135_n35138.t1 GND.t19 sky130_fd_pr__res_xhigh_po_0p35 l=1.75
X35 VDD.t220 VDD.t219 VDD.t220 VDD.t124 sky130_fd_pr__pfet_01v8_lvt ad=0.725 pd=5.29 as=0 ps=0 w=5 l=1
X36 VDD.t267 a_25356_n32542.t16 a_26874_n30469.t8 VDD.t124 sky130_fd_pr__pfet_01v8_lvt ad=0.725 pd=5.29 as=0.725 ps=5.29 w=5 l=1
X37 a_30192_n32542.t10 a_27390_n30469.t10 GND.t5 GND.t0 sky130_fd_pr__nfet_01v8_lvt ad=0.0725 pd=0.79 as=0.0725 ps=0.79 w=0.5 l=1
X38 GND.t195 GND.t194 GND.t195 GND.t0 sky130_fd_pr__nfet_01v8_lvt ad=0.0725 pd=0.79 as=0 ps=0 w=0.5 l=1
X39 VDD.t218 VDD.t217 VDD.t218 VDD.t134 sky130_fd_pr__pfet_01v8_lvt ad=0.725 pd=5.29 as=0 ps=0 w=5 l=1
X40 GND.t193 GND.t192 GND.t193 GND.t28 sky130_fd_pr__nfet_01v8_lvt ad=0.0725 pd=0.79 as=0 ps=0 w=0.5 l=1
X41 GND.t191 GND.t190 GND.t191 GND.t0 sky130_fd_pr__nfet_01v8_lvt ad=0.0725 pd=0.79 as=0 ps=0 w=0.5 l=1
X42 GND.t189 GND.t188 GND.t189 GND.t4 sky130_fd_pr__nfet_01v8_lvt ad=0.0725 pd=0.79 as=0 ps=0 w=0.5 l=1
X43 a_26079_n35175.t0 a_26271_n35831.t5 VDD.t254 VDD.t253 sky130_fd_pr__pfet_01v8_lvt ad=0.145 pd=1.58 as=0.145 ps=1.58 w=0.5 l=1
X44 GND.t187 GND.t186 GND.t187 GND.t0 sky130_fd_pr__nfet_01v8_lvt ad=0.0725 pd=0.79 as=0 ps=0 w=0.5 l=1
X45 GND.t185 GND.t183 GND.t184 GND.t17 sky130_fd_pr__nfet_01v8_lvt ad=0.145 pd=1.58 as=0 ps=0 w=0.5 l=1
X46 a_25045_n33883.t1 a_25045_n33883.t0 a_25045_n33883.t1 VDD.t12 sky130_fd_pr__pfet_01v8_lvt ad=0.0725 pd=0.79 as=0 ps=0 w=0.5 l=1
X47 VDD.t216 VDD.t214 VDD.t215 VDD.t115 sky130_fd_pr__pfet_01v8_lvt ad=1.45 pd=10.58 as=0 ps=0 w=5 l=1
X48 a_24582_n32542.t6 a_24582_n32542.t4 a_24582_n32542.t5 VDD.t115 sky130_fd_pr__pfet_01v8_lvt ad=1.45 pd=10.58 as=0 ps=0 w=5 l=1
X49 a_24646_n35831.t24 a_24646_n35831.t22 a_24646_n35831.t23 VDD.t48 sky130_fd_pr__pfet_01v8_lvt ad=0.232 pd=2.18 as=0 ps=0 w=0.8 l=1
X50 VDD.t52 a_30192_n32542.t13 V_ldo.t10 VDD.t51 sky130_fd_pr__pfet_01v8_lvt ad=6.67 pd=46.29 as=6.67 ps=46.29 w=46 l=1
X51 V_ldo.t9 a_30192_n32542.t14 VDD.t44 VDD.t43 sky130_fd_pr__pfet_01v8_lvt ad=6.67 pd=46.29 as=6.67 ps=46.29 w=46 l=1
X52 VDD.t213 VDD.t212 VDD.t213 VDD.t57 sky130_fd_pr__pfet_01v8_lvt ad=0.725 pd=5.29 as=0 ps=0 w=5 l=1
X53 VDD.t211 VDD.t210 VDD.t211 VDD.t119 sky130_fd_pr__pfet_01v8_lvt ad=0.725 pd=5.29 as=0 ps=0 w=5 l=1
X54 V_ldo.t8 a_30192_n32542.t15 VDD.t42 VDD.t41 sky130_fd_pr__pfet_01v8_lvt ad=6.67 pd=46.29 as=6.67 ps=46.29 w=46 l=1
X55 GND.t18 a_25135_n35138.t4 a_25045_n33883.t4 GND.t17 sky130_fd_pr__nfet_01v8_lvt ad=0.0725 pd=0.79 as=0.145 ps=1.58 w=0.5 l=1
X56 a_25098_n32542.t11 CG2_0.Vbias.t6 GND.t225 GND.t0 sky130_fd_pr__nfet_01v8_lvt ad=0.0725 pd=0.79 as=0.0725 ps=0.79 w=0.5 l=1
X57 GND.t182 GND.t181 GND.t182 GND.t0 sky130_fd_pr__nfet_01v8_lvt ad=0.0725 pd=0.79 as=0 ps=0 w=0.5 l=1
X58 a_27390_n30469.t4 a_25356_n32542.t17 VDD.t260 VDD.t105 sky130_fd_pr__pfet_01v8_lvt ad=0.725 pd=5.29 as=0.725 ps=5.29 w=5 l=1
X59 a_24646_n35831.t21 a_24646_n35831.t20 a_24646_n35831.t21 VDD.t32 sky130_fd_pr__pfet_01v8_lvt ad=0.0725 pd=0.79 as=0 ps=0 w=0.5 l=1
X60 VDD.t209 VDD.t208 VDD.t209 VDD.t105 sky130_fd_pr__pfet_01v8_lvt ad=0.725 pd=5.29 as=0 ps=0 w=5 l=1
X61 a_24898_n32597.t1 GND.t232 GND.t37 sky130_fd_pr__res_xhigh_po_0p35 l=5.25
X62 GND.t180 GND.t178 GND.t179 GND.t0 sky130_fd_pr__nfet_01v8_lvt ad=0.145 pd=1.58 as=0 ps=0 w=0.5 l=1
X63 GND.t177 GND.t176 GND.t177 GND.t0 sky130_fd_pr__nfet_01v8_lvt ad=0.0725 pd=0.79 as=0 ps=0 w=0.5 l=1
X64 VDD.t207 VDD.t206 VDD.t207 VDD.t0 sky130_fd_pr__pfet_01v8_lvt ad=0.725 pd=5.29 as=0 ps=0 w=5 l=1
X65 GND.t175 GND.t174 GND.t175 GND.t15 sky130_fd_pr__nfet_01v8_lvt ad=0.0725 pd=0.79 as=0 ps=0 w=0.5 l=1
X66 VDD.t205 VDD.t204 VDD.t205 VDD.t110 sky130_fd_pr__pfet_01v8_lvt ad=0.725 pd=5.29 as=0 ps=0 w=5 l=1
X67 VDD.t203 VDD.t202 VDD.t203 VDD.t22 sky130_fd_pr__pfet_01v8_lvt ad=0.725 pd=5.29 as=0 ps=0 w=5 l=1
X68 VDD.t201 VDD.t200 VDD.t201 VDD.t83 sky130_fd_pr__pfet_01v8_lvt ad=0.08555 pd=0.88 as=0 ps=0 w=0.59 l=1
X69 GND.t173 GND.t172 GND.t173 GND.t6 sky130_fd_pr__nfet_01v8_lvt ad=0.0725 pd=0.79 as=0 ps=0 w=0.5 l=1
X70 GND.t229 a_27390_n30469.t8 a_27390_n30469.t9 GND.t0 sky130_fd_pr__nfet_01v8_lvt ad=0.0725 pd=0.79 as=0.0725 ps=0.79 w=0.5 l=1
X71 a_25045_n33883.t3 a_25045_n33883.t2 VDD.t13 VDD.t12 sky130_fd_pr__pfet_01v8_lvt ad=0.0725 pd=0.79 as=0.0725 ps=0.79 w=0.5 l=1
X72 a_24646_n35831.t19 a_24646_n35831.t17 a_24646_n35831.t18 VDD.t12 sky130_fd_pr__pfet_01v8_lvt ad=0.145 pd=1.58 as=0 ps=0 w=0.5 l=1
X73 VDD.t199 VDD.t198 VDD.t199 VDD.t26 sky130_fd_pr__pfet_01v8_lvt ad=0.725 pd=5.29 as=0 ps=0 w=5 l=1
X74 a_30192_n32542.t4 a_26874_n30469.t10 VDD.t27 VDD.t26 sky130_fd_pr__pfet_01v8_lvt ad=0.725 pd=5.29 as=0.725 ps=5.29 w=5 l=1
X75 GND.t38 GND.t39 GND.t37 sky130_fd_pr__res_xhigh_po_0p35 l=5.25
X76 VDD.t197 VDD.t196 VDD.t197 VDD.t4 sky130_fd_pr__pfet_01v8_lvt ad=0.725 pd=5.29 as=0 ps=0 w=5 l=1
X77 V_ldo.t27 a_30192_n32542.t16 VDD.t271 VDD.t270 sky130_fd_pr__pfet_01v8_lvt ad=6.67 pd=46.29 as=6.67 ps=46.29 w=46 l=1
X78 GND.t230 CG2_0.Vbias.t7 a_25098_n32542.t10 GND.t0 sky130_fd_pr__nfet_01v8_lvt ad=0.0725 pd=0.79 as=0.0725 ps=0.79 w=0.5 l=1
X79 a_24646_n35831.t16 a_24646_n35831.t14 a_24646_n35831.t15 VDD.t243 sky130_fd_pr__pfet_01v8_lvt ad=0.232 pd=2.18 as=0 ps=0 w=0.8 l=1
X80 V_ldo.t3 a_30192_n32542.t17 VDD.t17 VDD.t16 sky130_fd_pr__pfet_01v8_lvt ad=6.67 pd=46.29 as=6.67 ps=46.29 w=46 l=1
X81 VDD.t195 VDD.t194 VDD.t195 VDD.t10 sky130_fd_pr__pfet_01v8_lvt ad=0.08555 pd=0.88 as=0 ps=0 w=0.59 l=1
X82 GND.t171 GND.t170 GND.t171 GND.t0 sky130_fd_pr__nfet_01v8_lvt ad=0.0725 pd=0.79 as=0 ps=0 w=0.5 l=1
X83 a_24646_n35831.t13 a_24646_n35831.t12 a_24646_n35831.t13 VDD.t32 sky130_fd_pr__pfet_01v8_lvt ad=0.0725 pd=0.79 as=0 ps=0 w=0.5 l=1
X84 V_ldo.t28 a_25356_n32542.t11 sky130_fd_pr__cap_mim_m3_1 l=12 w=14
X85 GND.t221 GND.t222 GND.t220 sky130_fd_pr__res_xhigh_po_0p35 l=4.38
X86 GND.t169 GND.t167 GND.t168 GND.t21 sky130_fd_pr__nfet_01v8_lvt ad=0.145 pd=1.58 as=0 ps=0 w=0.5 l=1
X87 a_24646_n35831.t11 a_24646_n35831.t9 a_24646_n35831.t10 VDD.t32 sky130_fd_pr__pfet_01v8_lvt ad=0.145 pd=1.58 as=0 ps=0 w=0.5 l=1
X88 VDD.t193 VDD.t192 VDD.t193 VDD.t96 sky130_fd_pr__pfet_01v8_lvt ad=0.725 pd=5.29 as=0 ps=0 w=5 l=1
X89 a_26874_n30469.t7 a_25356_n32542.t18 VDD.t263 VDD.t96 sky130_fd_pr__pfet_01v8_lvt ad=0.725 pd=5.29 as=0.725 ps=5.29 w=5 l=1
X90 a_24582_n32542.t3 a_24582_n32542.t2 a_24582_n32542.t3 GND.t27 sky130_fd_pr__nfet_01v8_lvt ad=0.0725 pd=0.79 as=0 ps=0 w=0.5 l=1
X91 GND.t166 GND.t165 GND.t166 GND.t0 sky130_fd_pr__nfet_01v8_lvt ad=0.0725 pd=0.79 as=0 ps=0 w=0.5 l=1
X92 GND.t164 GND.t163 GND.t164 GND.t2 sky130_fd_pr__nfet_01v8_lvt ad=0.0725 pd=0.79 as=0 ps=0 w=0.5 l=1
X93 GND.t162 GND.t160 GND.t161 GND.t59 sky130_fd_pr__nfet_01v8_lvt ad=0.145 pd=1.58 as=0 ps=0 w=0.5 l=1
X94 V_ldo.t29 a_25356_n32542.t10 sky130_fd_pr__cap_mim_m3_1 l=12 w=14
X95 V_ldo.t30 a_25356_n32542.t9 sky130_fd_pr__cap_mim_m3_1 l=12 w=14
X96 VDD.t191 VDD.t190 VDD.t191 VDD.t137 sky130_fd_pr__pfet_01v8_lvt ad=0.08555 pd=0.88 as=0 ps=0 w=0.59 l=1
X97 VDD.t189 VDD.t188 VDD.t189 VDD.t20 sky130_fd_pr__pfet_01v8_lvt ad=0.725 pd=5.29 as=0 ps=0 w=5 l=1
X98 GND.t159 GND.t157 GND.t159 GND.t158 sky130_fd_pr__nfet_01v8_lvt ad=0.0725 pd=0.79 as=0 ps=0 w=0.5 l=1
X99 GND.t156 GND.t155 GND.t156 GND.t35 sky130_fd_pr__nfet_01v8_lvt ad=0.09715 pd=0.96 as=0 ps=0 w=0.67 l=1
X100 a_27390_n30469.t7 a_27390_n30469.t6 GND.t34 GND.t0 sky130_fd_pr__nfet_01v8_lvt ad=0.0725 pd=0.79 as=0.0725 ps=0.79 w=0.5 l=1
X101 GND.t219 a_27390_n30469.t11 a_30192_n32542.t9 GND.t0 sky130_fd_pr__nfet_01v8_lvt ad=0.0725 pd=0.79 as=0.0725 ps=0.79 w=0.5 l=1
X102 GND.t154 GND.t153 GND.t154 GND.t0 sky130_fd_pr__nfet_01v8_lvt ad=0.0725 pd=0.79 as=0 ps=0 w=0.5 l=1
X103 V_ldo.t31 a_25356_n32542.t8 sky130_fd_pr__cap_mim_m3_1 l=12 w=14
X104 a_25135_n35138.t0 a_24646_n35831.t29 GND.t36 GND.t35 sky130_fd_pr__nfet_01v8_lvt ad=0.09715 pd=0.96 as=0.09715 ps=0.96 w=0.67 l=1
X105 VDD.t187 VDD.t186 VDD.t187 VDD.t86 sky130_fd_pr__pfet_01v8_lvt ad=0.725 pd=5.29 as=0 ps=0 w=5 l=1
X106 a_24582_n32542.t1 a_24582_n32542.t0 a_24582_n32542.t1 VDD.t86 sky130_fd_pr__pfet_01v8_lvt ad=0.725 pd=5.29 as=0 ps=0 w=5 l=1
X107 VDD.t262 a_30192_n32542.t18 V_ldo.t24 VDD.t261 sky130_fd_pr__pfet_01v8_lvt ad=6.67 pd=46.29 as=6.67 ps=46.29 w=46 l=1
X108 VDD.t185 VDD.t184 VDD.t185 VDD.t6 sky130_fd_pr__pfet_01v8_lvt ad=0.725 pd=5.29 as=0 ps=0 w=5 l=1
X109 GND.t152 GND.t151 GND.t152 GND.t0 sky130_fd_pr__nfet_01v8_lvt ad=0.0725 pd=0.79 as=0 ps=0 w=0.5 l=1
X110 VDD.t265 a_30192_n32542.t19 V_ldo.t25 VDD.t264 sky130_fd_pr__pfet_01v8_lvt ad=6.67 pd=46.29 as=6.67 ps=46.29 w=46 l=1
X111 VDD.t183 VDD.t182 VDD.t183 VDD.t89 sky130_fd_pr__pfet_01v8_lvt ad=0.725 pd=5.29 as=0 ps=0 w=5 l=1
X112 GND.t150 GND.t149 GND.t150 GND.t0 sky130_fd_pr__nfet_01v8_lvt ad=0.0725 pd=0.79 as=0 ps=0 w=0.5 l=1
X113 VDD.t269 a_30192_n32542.t20 V_ldo.t26 VDD.t268 sky130_fd_pr__pfet_01v8_lvt ad=6.67 pd=46.29 as=6.67 ps=46.29 w=46 l=1
X114 V_ldo.t11 a_30192_n32542.t21 VDD.t56 VDD.t55 sky130_fd_pr__pfet_01v8_lvt ad=6.67 pd=46.29 as=6.67 ps=46.29 w=46 l=1
X115 V_ldo.t32 a_25356_n32542.t7 sky130_fd_pr__cap_mim_m3_1 l=12 w=14
X116 GND.t26 CG2_0.Vbias.t8 a_25098_n32542.t9 GND.t0 sky130_fd_pr__nfet_01v8_lvt ad=0.0725 pd=0.79 as=0.0725 ps=0.79 w=0.5 l=1
X117 VDD.t181 VDD.t179 VDD.t180 VDD.t75 sky130_fd_pr__pfet_01v8_lvt ad=1.45 pd=10.58 as=0 ps=0 w=5 l=1
X118 VDD.t178 VDD.t177 VDD.t178 VDD.t72 sky130_fd_pr__pfet_01v8_lvt ad=0.725 pd=5.29 as=0 ps=0 w=5 l=1
X119 VDD.t176 VDD.t174 VDD.t175 VDD.t75 sky130_fd_pr__pfet_01v8_lvt ad=1.45 pd=10.58 as=0 ps=0 w=5 l=1
X120 a_27390_n30469.t3 a_25356_n32542.t19 VDD.t266 VDD.t72 sky130_fd_pr__pfet_01v8_lvt ad=0.725 pd=5.29 as=0.725 ps=5.29 w=5 l=1
X121 GND.t148 GND.t146 GND.t147 GND.t32 sky130_fd_pr__nfet_01v8_lvt ad=0.145 pd=1.58 as=0 ps=0 w=0.5 l=1
X122 GND.t145 GND.t143 GND.t144 GND.t0 sky130_fd_pr__nfet_01v8_lvt ad=0.145 pd=1.58 as=0 ps=0 w=0.5 l=1
X123 V_ldo.t33 a_25356_n32542.t6 sky130_fd_pr__cap_mim_m3_1 l=12 w=14
X124 VDD.t173 VDD.t170 VDD.t172 VDD.t171 sky130_fd_pr__pfet_01v8_lvt ad=0.145 pd=1.58 as=0 ps=0 w=0.5 l=1
X125 VDD.t169 VDD.t168 VDD.t169 VDD.t49 sky130_fd_pr__pfet_01v8_lvt ad=0.725 pd=5.29 as=0 ps=0 w=5 l=1
X126 VDD.t167 VDD.t166 VDD.t167 VDD.t18 sky130_fd_pr__pfet_01v8_lvt ad=0.725 pd=5.29 as=0 ps=0 w=5 l=1
X127 GND.t142 GND.t141 GND.t142 GND.t0 sky130_fd_pr__nfet_01v8_lvt ad=0.0725 pd=0.79 as=0 ps=0 w=0.5 l=1
X128 a_30192_n32542.t8 a_27390_n30469.t12 GND.t25 GND.t0 sky130_fd_pr__nfet_01v8_lvt ad=0.0725 pd=0.79 as=0.0725 ps=0.79 w=0.5 l=1
X129 GND.t140 GND.t139 GND.t140 GND.t45 sky130_fd_pr__nfet_01v8_lvt ad=0.0725 pd=0.79 as=0 ps=0 w=0.5 l=1
X130 GND.t138 GND.t137 GND.t138 GND.t0 sky130_fd_pr__nfet_01v8_lvt ad=0.0725 pd=0.79 as=0 ps=0 w=0.5 l=1
X131 VDD.t165 VDD.t163 VDD.t164 VDD.t83 sky130_fd_pr__pfet_01v8_lvt ad=0.1711 pd=1.76 as=0 ps=0 w=0.59 l=1
X132 VDD.t244 a_25045_n33883.t5 a_24646_n35831.t28 VDD.t12 sky130_fd_pr__pfet_01v8_lvt ad=0.0725 pd=0.79 as=0.0725 ps=0.79 w=0.5 l=1
X133 VDD.t162 VDD.t161 VDD.t162 VDD.t159 sky130_fd_pr__pfet_01v8_lvt ad=0.725 pd=5.29 as=0 ps=0 w=5 l=1
X134 VDD.t160 VDD.t158 VDD.t160 VDD.t159 sky130_fd_pr__pfet_01v8_lvt ad=0.725 pd=5.29 as=0 ps=0 w=5 l=1
X135 GND.t136 GND.t135 GND.t136 GND.t29 sky130_fd_pr__nfet_01v8_lvt ad=0.0725 pd=0.79 as=0 ps=0 w=0.5 l=1
X136 VDD.t157 VDD.t155 VDD.t156 VDD.t152 sky130_fd_pr__pfet_01v8_lvt ad=1.45 pd=10.58 as=0 ps=0 w=5 l=1
X137 VDD.t154 VDD.t151 VDD.t153 VDD.t152 sky130_fd_pr__pfet_01v8_lvt ad=1.45 pd=10.58 as=0 ps=0 w=5 l=1
X138 VDD.t150 VDD.t149 VDD.t150 VDD.t24 sky130_fd_pr__pfet_01v8_lvt ad=0.725 pd=5.29 as=0 ps=0 w=5 l=1
X139 VDD.t25 a_26874_n30469.t11 a_30192_n32542.t3 VDD.t24 sky130_fd_pr__pfet_01v8_lvt ad=0.725 pd=5.29 as=0.725 ps=5.29 w=5 l=1
X140 V_ldo.t12 a_30192_n32542.t22 VDD.t60 VDD.t59 sky130_fd_pr__pfet_01v8_lvt ad=6.67 pd=46.29 as=6.67 ps=46.29 w=46 l=1
X141 VDD.t148 VDD.t147 VDD.t148 VDD.t39 sky130_fd_pr__pfet_01v8_lvt ad=0.725 pd=5.29 as=0 ps=0 w=5 l=1
X142 VDD.t259 a_30192_n32542.t23 V_ldo.t23 VDD.t258 sky130_fd_pr__pfet_01v8_lvt ad=6.67 pd=46.29 as=6.67 ps=46.29 w=46 l=1
X143 VDD.t146 VDD.t144 VDD.t146 VDD.t145 sky130_fd_pr__pfet_01v8_lvt ad=0.725 pd=5.29 as=0 ps=0 w=5 l=1
X144 GND.t134 GND.t133 GND.t134 GND.t0 sky130_fd_pr__nfet_01v8_lvt ad=0.0725 pd=0.79 as=0 ps=0 w=0.5 l=1
X145 a_25098_n32542.t8 CG2_0.Vbias.t9 GND.t13 GND.t12 sky130_fd_pr__nfet_01v8_lvt ad=0.0725 pd=0.79 as=0.0725 ps=0.79 w=0.5 l=1
X146 V_ldo.t19 V_ldo.t18 V_ldo.t19 VDD.t245 sky130_fd_pr__pfet_01v8_lvt ad=6.67 pd=46.29 as=0 ps=0 w=46 l=1
X147 VDD.t15 a_30192_n32542.t24 V_ldo.t2 VDD.t14 sky130_fd_pr__pfet_01v8_lvt ad=6.67 pd=46.29 as=6.67 ps=46.29 w=46 l=1
X148 V_ldo.t0 a_30192_n32542.t25 VDD.t3 VDD.t2 sky130_fd_pr__pfet_01v8_lvt ad=6.67 pd=46.29 as=6.67 ps=46.29 w=46 l=1
X149 GND.t231 CG2_0.Vbias.t10 a_25098_n32542.t7 GND.t81 sky130_fd_pr__nfet_01v8_lvt ad=0.0725 pd=0.79 as=0.0725 ps=0.79 w=0.5 l=1
X150 a_25098_n32542.t6 CG2_0.Vbias.t11 GND.t14 GND.t0 sky130_fd_pr__nfet_01v8_lvt ad=0.0725 pd=0.79 as=0.0725 ps=0.79 w=0.5 l=1
X151 a_24646_n35831.t8 a_24646_n35831.t7 a_24646_n35831.t8 VDD.t32 sky130_fd_pr__pfet_01v8_lvt ad=0.0725 pd=0.79 as=0 ps=0 w=0.5 l=1
X152 a_26271_n35831.t3 a_26271_n35831.t1 a_26271_n35831.t2 VDD.t10 sky130_fd_pr__pfet_01v8_lvt ad=0.1711 pd=1.76 as=0 ps=0 w=0.59 l=1
X153 GND.t132 GND.t130 GND.t132 GND.t131 sky130_fd_pr__nfet_01v8_lvt ad=0.0725 pd=0.79 as=0 ps=0 w=0.5 l=1
X154 GND.t129 GND.t128 GND.t129 GND.t27 sky130_fd_pr__nfet_01v8_lvt ad=0.0725 pd=0.79 as=0 ps=0 w=0.5 l=1
X155 a_24582_n32542.t14 a_24898_n32597.t2 a_25098_n32542.t2 GND.t31 sky130_fd_pr__nfet_01v8_lvt ad=0.0725 pd=0.79 as=0.0725 ps=0.79 w=0.5 l=1
X156 VDD.t143 VDD.t142 VDD.t143 VDD.t53 sky130_fd_pr__pfet_01v8_lvt ad=0.725 pd=5.29 as=0 ps=0 w=5 l=1
X157 VDD.t54 a_25356_n32542.t20 a_26874_n30469.t0 VDD.t53 sky130_fd_pr__pfet_01v8_lvt ad=0.725 pd=5.29 as=0.725 ps=5.29 w=5 l=1
X158 VDD.t141 VDD.t140 VDD.t141 VDD.t28 sky130_fd_pr__pfet_01v8_lvt ad=0.725 pd=5.29 as=0 ps=0 w=5 l=1
X159 GND.t127 GND.t126 GND.t127 GND.t0 sky130_fd_pr__nfet_01v8_lvt ad=0.0725 pd=0.79 as=0 ps=0 w=0.5 l=1
X160 GND.t125 GND.t123 GND.t124 GND.t69 sky130_fd_pr__nfet_01v8_lvt ad=0.1943 pd=1.92 as=0 ps=0 w=0.67 l=1
X161 GND.t122 GND.t121 GND.t122 GND.t0 sky130_fd_pr__nfet_01v8_lvt ad=0.0725 pd=0.79 as=0 ps=0 w=0.5 l=1
X162 GND.t120 GND.t119 GND.t120 GND.t0 sky130_fd_pr__nfet_01v8_lvt ad=0.0725 pd=0.79 as=0 ps=0 w=0.5 l=1
X163 VDD.t139 VDD.t136 VDD.t138 VDD.t137 sky130_fd_pr__pfet_01v8_lvt ad=0.1711 pd=1.76 as=0 ps=0 w=0.59 l=1
X164 GND.t118 GND.t116 GND.t117 GND.t21 sky130_fd_pr__nfet_01v8_lvt ad=0.145 pd=1.58 as=0 ps=0 w=0.5 l=1
X165 GND.t115 GND.t114 GND.t115 GND.t0 sky130_fd_pr__nfet_01v8_lvt ad=0.0725 pd=0.79 as=0 ps=0 w=0.5 l=1
X166 GND.t113 GND.t112 GND.t113 GND.t35 sky130_fd_pr__nfet_01v8_lvt ad=0.09715 pd=0.96 as=0 ps=0 w=0.67 l=1
X167 GND.t111 GND.t109 GND.t110 GND.t69 sky130_fd_pr__nfet_01v8_lvt ad=0.1943 pd=1.92 as=0 ps=0 w=0.67 l=1
X168 VDD.t135 VDD.t133 VDD.t135 VDD.t134 sky130_fd_pr__pfet_01v8_lvt ad=0.725 pd=5.29 as=0 ps=0 w=5 l=1
X169 a_24582_n32542.t13 a_24582_n32542.t12 VDD.t251 VDD.t134 sky130_fd_pr__pfet_01v8_lvt ad=0.725 pd=5.29 as=0.725 ps=5.29 w=5 l=1
X170 GND.t23 GND.t24 GND.t22 sky130_fd_pr__res_xhigh_po_0p35 l=6.13
X171 V_ldo.t1 a_30192_n32542.t26 VDD.t9 VDD.t8 sky130_fd_pr__pfet_01v8_lvt ad=6.67 pd=46.29 as=6.67 ps=46.29 w=46 l=1
X172 VDD.t132 VDD.t130 VDD.t132 VDD.t131 sky130_fd_pr__pfet_01v8_lvt ad=0.725 pd=5.29 as=0 ps=0 w=5 l=1
X173 V_ldo.t5 a_30192_n32542.t27 VDD.t34 VDD.t33 sky130_fd_pr__pfet_01v8_lvt ad=6.67 pd=46.29 as=6.67 ps=46.29 w=46 l=1
X174 VDD.t129 VDD.t126 VDD.t128 VDD.t127 sky130_fd_pr__pfet_01v8_lvt ad=13.34 pd=92.58 as=0 ps=0 w=46 l=1
X175 VDD.t125 VDD.t123 VDD.t125 VDD.t124 sky130_fd_pr__pfet_01v8_lvt ad=0.725 pd=5.29 as=0 ps=0 w=5 l=1
X176 GND.t108 GND.t107 GND.t108 GND.t0 sky130_fd_pr__nfet_01v8_lvt ad=0.0725 pd=0.79 as=0 ps=0 w=0.5 l=1
X177 GND.t106 GND.t105 GND.t106 GND.t0 sky130_fd_pr__nfet_01v8_lvt ad=0.0725 pd=0.79 as=0 ps=0 w=0.5 l=1
X178 VDD.t66 a_30192_n32542.t28 V_ldo.t15 VDD.t65 sky130_fd_pr__pfet_01v8_lvt ad=6.67 pd=46.29 as=6.67 ps=46.29 w=46 l=1
X179 GND.t104 GND.t103 GND.t104 GND.t0 sky130_fd_pr__nfet_01v8_lvt ad=0.0725 pd=0.79 as=0 ps=0 w=0.5 l=1
X180 a_25098_n32542.t0 V_ref.t0 a_25356_n32542.t2 GND.t28 sky130_fd_pr__nfet_01v8_lvt ad=0.0725 pd=0.79 as=0.0725 ps=0.79 w=0.5 l=1
X181 VDD.t122 VDD.t121 VDD.t122 VDD.t57 sky130_fd_pr__pfet_01v8_lvt ad=0.725 pd=5.29 as=0 ps=0 w=5 l=1
X182 VDD.t120 VDD.t118 VDD.t120 VDD.t119 sky130_fd_pr__pfet_01v8_lvt ad=0.725 pd=5.29 as=0 ps=0 w=5 l=1
X183 a_26874_n30469.t1 a_25356_n32542.t21 VDD.t58 VDD.t57 sky130_fd_pr__pfet_01v8_lvt ad=0.725 pd=5.29 as=0.725 ps=5.29 w=5 l=1
X184 VDD.t257 a_25356_n32542.t22 a_27390_n30469.t2 VDD.t119 sky130_fd_pr__pfet_01v8_lvt ad=0.725 pd=5.29 as=0.725 ps=5.29 w=5 l=1
X185 a_25098_n32542.t1 a_24898_n32597.t3 a_24582_n32542.t15 GND.t4 sky130_fd_pr__nfet_01v8_lvt ad=0.0725 pd=0.79 as=0.0725 ps=0.79 w=0.5 l=1
X186 GND.t102 GND.t101 GND.t102 GND.t0 sky130_fd_pr__nfet_01v8_lvt ad=0.0725 pd=0.79 as=0 ps=0 w=0.5 l=1
X187 a_26874_n30469.t3 a_30192_n32542.t6 GND.t218 sky130_fd_pr__res_xhigh_po_0p35 l=4.38
X188 GND.t100 GND.t99 GND.t100 GND.t33 sky130_fd_pr__nfet_01v8_lvt ad=0.09715 pd=0.96 as=0 ps=0 w=0.67 l=1
X189 VDD.t117 VDD.t114 VDD.t116 VDD.t115 sky130_fd_pr__pfet_01v8_lvt ad=1.45 pd=10.58 as=0 ps=0 w=5 l=1
X190 GND.t98 GND.t97 GND.t98 GND.t0 sky130_fd_pr__nfet_01v8_lvt ad=0.0725 pd=0.79 as=0 ps=0 w=0.5 l=1
X191 a_24646_n35831.t6 a_24646_n35831.t5 a_24646_n35831.t6 VDD.t45 sky130_fd_pr__pfet_01v8_lvt ad=0.0725 pd=0.79 as=0 ps=0 w=0.5 l=1
X192 GND.t96 GND.t94 GND.t95 GND.t0 sky130_fd_pr__nfet_01v8_lvt ad=0.145 pd=1.58 as=0 ps=0 w=0.5 l=1
X193 GND.t93 GND.t91 GND.t92 GND.t17 sky130_fd_pr__nfet_01v8_lvt ad=0.145 pd=1.58 as=0 ps=0 w=0.5 l=1
X194 a_25135_n35138.t3 a_25135_n35138.t2 a_25135_n35138.t3 GND.t33 sky130_fd_pr__nfet_01v8_lvt ad=0.09715 pd=0.96 as=0 ps=0 w=0.67 l=1
X195 GND.t90 GND.t89 GND.t90 GND.t6 sky130_fd_pr__nfet_01v8_lvt ad=0.0725 pd=0.79 as=0 ps=0 w=0.5 l=1
X196 VDD.t113 VDD.t112 VDD.t113 VDD.t0 sky130_fd_pr__pfet_01v8_lvt ad=0.725 pd=5.29 as=0 ps=0 w=5 l=1
X197 VDD.t1 a_24582_n32542.t16 a_25356_n32542.t0 VDD.t0 sky130_fd_pr__pfet_01v8_lvt ad=0.725 pd=5.29 as=0.725 ps=5.29 w=5 l=1
X198 VDD.t47 a_25045_n33883.t6 CG2_0.Vbias.t0 VDD.t46 sky130_fd_pr__pfet_01v8_lvt ad=0.232 pd=2.18 as=0.232 ps=2.18 w=0.8 l=1
X199 VDD.t111 VDD.t109 VDD.t111 VDD.t110 sky130_fd_pr__pfet_01v8_lvt ad=0.725 pd=5.29 as=0 ps=0 w=5 l=1
X200 VDD.t252 a_24582_n32542.t10 a_24582_n32542.t11 VDD.t110 sky130_fd_pr__pfet_01v8_lvt ad=0.725 pd=5.29 as=0.725 ps=5.29 w=5 l=1
X201 VDD.t108 VDD.t107 VDD.t108 VDD.t22 sky130_fd_pr__pfet_01v8_lvt ad=0.725 pd=5.29 as=0 ps=0 w=5 l=1
X202 a_30192_n32542.t2 a_26874_n30469.t12 VDD.t23 VDD.t22 sky130_fd_pr__pfet_01v8_lvt ad=0.725 pd=5.29 as=0.725 ps=5.29 w=5 l=1
X203 VDD.t106 VDD.t104 VDD.t106 VDD.t105 sky130_fd_pr__pfet_01v8_lvt ad=0.725 pd=5.29 as=0 ps=0 w=5 l=1
X204 V_ldo.t14 a_30192_n32542.t29 VDD.t64 VDD.t63 sky130_fd_pr__pfet_01v8_lvt ad=6.67 pd=46.29 as=6.67 ps=46.29 w=46 l=1
X205 VDD.t250 a_30192_n32542.t30 V_ldo.t21 VDD.t249 sky130_fd_pr__pfet_01v8_lvt ad=6.67 pd=46.29 as=6.67 ps=46.29 w=46 l=1
X206 GND.t88 GND.t87 GND.t88 GND.t12 sky130_fd_pr__nfet_01v8_lvt ad=0.0725 pd=0.79 as=0 ps=0 w=0.5 l=1
X207 V_ldo.t22 a_30192_n32542.t31 VDD.t256 VDD.t255 sky130_fd_pr__pfet_01v8_lvt ad=6.67 pd=46.29 as=6.67 ps=46.29 w=46 l=1
X208 a_26079_n35175.t2 a_26079_n35175.t1 GND.t7 GND.t6 sky130_fd_pr__nfet_01v8_lvt ad=0.145 pd=1.58 as=0.0725 ps=0.79 w=0.5 l=1
X209 GND.t86 GND.t85 GND.t86 GND.t0 sky130_fd_pr__nfet_01v8_lvt ad=0.0725 pd=0.79 as=0 ps=0 w=0.5 l=1
X210 GND.t20 CG2_0.Vbias.t12 a_25098_n32542.t5 GND.t0 sky130_fd_pr__nfet_01v8_lvt ad=0.0725 pd=0.79 as=0.0725 ps=0.79 w=0.5 l=1
X211 GND.t84 GND.t83 GND.t84 GND.t0 sky130_fd_pr__nfet_01v8_lvt ad=0.0725 pd=0.79 as=0 ps=0 w=0.5 l=1
X212 V_ldo.t16 a_30192_n32542.t32 VDD.t242 VDD.t241 sky130_fd_pr__pfet_01v8_lvt ad=6.67 pd=46.29 as=6.67 ps=46.29 w=46 l=1
X213 GND.t82 GND.t80 GND.t82 GND.t81 sky130_fd_pr__nfet_01v8_lvt ad=0.0725 pd=0.79 as=0 ps=0 w=0.5 l=1
X214 a_25098_n32542.t4 CG2_0.Vbias.t13 GND.t16 GND.t15 sky130_fd_pr__nfet_01v8_lvt ad=0.0725 pd=0.79 as=0.0725 ps=0.79 w=0.5 l=1
X215 VDD.t103 VDD.t102 VDD.t103 VDD.t4 sky130_fd_pr__pfet_01v8_lvt ad=0.725 pd=5.29 as=0 ps=0 w=5 l=1
X216 a_27390_n30469.t1 a_25356_n32542.t23 VDD.t5 VDD.t4 sky130_fd_pr__pfet_01v8_lvt ad=0.725 pd=5.29 as=0.725 ps=5.29 w=5 l=1
X217 GND.t79 GND.t78 GND.t79 GND.t31 sky130_fd_pr__nfet_01v8_lvt ad=0.0725 pd=0.79 as=0 ps=0 w=0.5 l=1
X218 GND.t77 GND.t76 GND.t77 GND.t0 sky130_fd_pr__nfet_01v8_lvt ad=0.0725 pd=0.79 as=0 ps=0 w=0.5 l=1
X219 GND.t75 GND.t74 GND.t75 GND.t2 sky130_fd_pr__nfet_01v8_lvt ad=0.0725 pd=0.79 as=0 ps=0 w=0.5 l=1
X220 GND.t9 GND.t10 GND.t8 sky130_fd_pr__res_xhigh_po_0p35 l=4.38
X221 VDD.t101 VDD.t100 VDD.t101 VDD.t26 sky130_fd_pr__pfet_01v8_lvt ad=0.725 pd=5.29 as=0 ps=0 w=5 l=1
X222 GND.t227 GND.t228 GND.t217 sky130_fd_pr__res_xhigh_po_0p35 l=6.13
X223 a_24646_n35831.t4 a_24646_n35831.t3 a_24646_n35831.t4 VDD.t45 sky130_fd_pr__pfet_01v8_lvt ad=0.0725 pd=0.79 as=0 ps=0 w=0.5 l=1
X224 a_24646_n35831.t2 a_24646_n35831.t0 a_24646_n35831.t1 VDD.t45 sky130_fd_pr__pfet_01v8_lvt ad=0.145 pd=1.58 as=0 ps=0 w=0.5 l=1
X225 GND.t73 GND.t72 GND.t73 GND.t27 sky130_fd_pr__nfet_01v8_lvt ad=0.0725 pd=0.79 as=0 ps=0 w=0.5 l=1
X226 V_ldo.t34 a_25356_n32542.t5 sky130_fd_pr__cap_mim_m3_1 l=12 w=14
X227 GND.t3 a_26079_n35175.t3 a_26649_n35120.t0 GND.t2 sky130_fd_pr__nfet_01v8_lvt ad=0.0725 pd=0.79 as=0.0725 ps=0.79 w=0.5 l=1
X228 GND.t71 GND.t68 GND.t70 GND.t69 sky130_fd_pr__nfet_01v8_lvt ad=0.1943 pd=1.92 as=0 ps=0 w=0.67 l=1
X229 VDD.t21 a_26874_n30469.t13 a_30192_n32542.t1 VDD.t20 sky130_fd_pr__pfet_01v8_lvt ad=0.725 pd=5.29 as=0.725 ps=5.29 w=5 l=1
X230 VDD.t99 VDD.t98 VDD.t99 VDD.t20 sky130_fd_pr__pfet_01v8_lvt ad=0.725 pd=5.29 as=0 ps=0 w=5 l=1
X231 VDD.t97 VDD.t95 VDD.t97 VDD.t96 sky130_fd_pr__pfet_01v8_lvt ad=0.725 pd=5.29 as=0 ps=0 w=5 l=1
X232 GND.t67 GND.t66 GND.t67 GND.t0 sky130_fd_pr__nfet_01v8_lvt ad=0.0725 pd=0.79 as=0 ps=0 w=0.5 l=1
X233 GND.t65 GND.t64 GND.t65 GND.t0 sky130_fd_pr__nfet_01v8_lvt ad=0.0725 pd=0.79 as=0 ps=0 w=0.5 l=1
X234 V_ldo.t35 a_25356_n32542.t4 sky130_fd_pr__cap_mim_m3_1 l=12 w=14
X235 VDD.t248 a_30192_n32542.t33 V_ldo.t20 VDD.t247 sky130_fd_pr__pfet_01v8_lvt ad=6.67 pd=46.29 as=6.67 ps=46.29 w=46 l=1
X236 GND.t63 GND.t62 GND.t63 GND.t0 sky130_fd_pr__nfet_01v8_lvt ad=0.0725 pd=0.79 as=0 ps=0 w=0.5 l=1
X237 V_ldo.t4 a_30192_n32542.t34 VDD.t31 VDD.t30 sky130_fd_pr__pfet_01v8_lvt ad=6.67 pd=46.29 as=6.67 ps=46.29 w=46 l=1
X238 GND.t61 GND.t58 GND.t60 GND.t59 sky130_fd_pr__nfet_01v8_lvt ad=0.145 pd=1.58 as=0 ps=0 w=0.5 l=1
X239 GND.t57 GND.t56 GND.t57 GND.t28 sky130_fd_pr__nfet_01v8_lvt ad=0.0725 pd=0.79 as=0 ps=0 w=0.5 l=1
X240 a_25356_n32542.t12 V_ref.t1 a_25098_n32542.t3 GND.t158 sky130_fd_pr__nfet_01v8_lvt ad=0.0725 pd=0.79 as=0.0725 ps=0.79 w=0.5 l=1
X241 VDD.t94 VDD.t93 VDD.t94 VDD.t6 sky130_fd_pr__pfet_01v8_lvt ad=0.725 pd=5.29 as=0 ps=0 w=5 l=1
X242 VDD.t7 a_25356_n32542.t24 a_27390_n30469.t0 VDD.t6 sky130_fd_pr__pfet_01v8_lvt ad=0.725 pd=5.29 as=0.725 ps=5.29 w=5 l=1
X243 GND.t55 GND.t54 GND.t55 GND.t4 sky130_fd_pr__nfet_01v8_lvt ad=0.0725 pd=0.79 as=0 ps=0 w=0.5 l=1
X244 VDD.t92 VDD.t91 VDD.t92 VDD.t89 sky130_fd_pr__pfet_01v8_lvt ad=0.725 pd=5.29 as=0 ps=0 w=5 l=1
X245 VDD.t90 VDD.t88 VDD.t90 VDD.t89 sky130_fd_pr__pfet_01v8_lvt ad=0.725 pd=5.29 as=0 ps=0 w=5 l=1
X246 GND.t53 GND.t51 GND.t52 GND.t32 sky130_fd_pr__nfet_01v8_lvt ad=0.145 pd=1.58 as=0 ps=0 w=0.5 l=1
X247 GND.t50 GND.t49 GND.t50 GND.t0 sky130_fd_pr__nfet_01v8_lvt ad=0.0725 pd=0.79 as=0 ps=0 w=0.5 l=1
X248 VDD.t87 VDD.t85 VDD.t87 VDD.t86 sky130_fd_pr__pfet_01v8_lvt ad=0.725 pd=5.29 as=0 ps=0 w=5 l=1
X249 V_ldo.t36 a_25356_n32542.t3 sky130_fd_pr__cap_mim_m3_1 l=12 w=14
X250 a_26649_n35120.t3 a_26649_n35120.t1 a_26649_n35120.t2 GND.t32 sky130_fd_pr__nfet_01v8_lvt ad=0.145 pd=1.58 as=0 ps=0 w=0.5 l=1
X251 GND.t1 a_27390_n30469.t13 a_30192_n32542.t7 GND.t0 sky130_fd_pr__nfet_01v8_lvt ad=0.0725 pd=0.79 as=0.0725 ps=0.79 w=0.5 l=1
X252 GND.t48 GND.t47 GND.t48 GND.t33 sky130_fd_pr__nfet_01v8_lvt ad=0.09715 pd=0.96 as=0 ps=0 w=0.67 l=1
X253 GND.t46 GND.t44 GND.t46 GND.t45 sky130_fd_pr__nfet_01v8_lvt ad=0.0725 pd=0.79 as=0 ps=0 w=0.5 l=1
X254 VDD.t84 VDD.t82 VDD.t84 VDD.t83 sky130_fd_pr__pfet_01v8_lvt ad=0.08555 pd=0.88 as=0 ps=0 w=0.59 l=1
X255 VDD.t81 VDD.t80 VDD.t81 VDD.t49 sky130_fd_pr__pfet_01v8_lvt ad=0.725 pd=5.29 as=0 ps=0 w=5 l=1
X256 a_25356_n32542.t1 a_24582_n32542.t17 VDD.t50 VDD.t49 sky130_fd_pr__pfet_01v8_lvt ad=0.725 pd=5.29 as=0.725 ps=5.29 w=5 l=1
X257 VDD.t79 VDD.t78 VDD.t79 VDD.t18 sky130_fd_pr__pfet_01v8_lvt ad=0.725 pd=5.29 as=0 ps=0 w=5 l=1
X258 VDD.t19 a_26874_n30469.t14 a_30192_n32542.t0 VDD.t18 sky130_fd_pr__pfet_01v8_lvt ad=0.725 pd=5.29 as=0.725 ps=5.29 w=5 l=1
X259 GND.t43 GND.t42 GND.t43 GND.t29 sky130_fd_pr__nfet_01v8_lvt ad=0.0725 pd=0.79 as=0 ps=0 w=0.5 l=1
X260 GND.t226 a_26079_n35175.t4 CG2_0.Vbias.t1 GND.t45 sky130_fd_pr__nfet_01v8_lvt ad=0.0725 pd=0.79 as=0.0725 ps=0.79 w=0.5 l=1
X261 VDD.t77 VDD.t74 VDD.t76 VDD.t75 sky130_fd_pr__pfet_01v8_lvt ad=1.45 pd=10.58 as=0 ps=0 w=5 l=1
X262 VDD.t73 VDD.t71 VDD.t73 VDD.t72 sky130_fd_pr__pfet_01v8_lvt ad=0.725 pd=5.29 as=0 ps=0 w=5 l=1
X263 GND.t41 GND.t40 GND.t41 GND.t0 sky130_fd_pr__nfet_01v8_lvt ad=0.0725 pd=0.79 as=0 ps=0 w=0.5 l=1
X264 VDD.t70 VDD.t67 VDD.t69 VDD.t68 sky130_fd_pr__pfet_01v8_lvt ad=0.145 pd=1.58 as=0 ps=0 w=0.5 l=1
X265 VDD.t38 a_30192_n32542.t35 V_ldo.t7 VDD.t37 sky130_fd_pr__pfet_01v8_lvt ad=6.67 pd=46.29 as=6.67 ps=46.29 w=46 l=1
R0 GND.n1038 GND.n37 19999.3
R1 GND.n1022 GND.n35 12034.4
R2 GND.n1039 GND.n35 12028.6
R3 GND.n683 GND.n133 9629.82
R4 GND.n60 GND.n58 9629.82
R5 GND.n683 GND.n134 9618.24
R6 GND.n174 GND.n58 9618.24
R7 GND.n685 GND.n59 9583.47
R8 GND.n863 GND.n59 9583.47
R9 GND.n331 GND.n176 8088.59
R10 GND.n176 GND.n175 8088.59
R11 GND.n894 GND.n885 7514.97
R12 GND.n894 GND.n883 7514.97
R13 GND.n873 GND.n866 7010.88
R14 GND.n866 GND.n57 7010.88
R15 GND.n685 GND.n133 6616.88
R16 GND.n863 GND.n60 6616.88